@<TRIPOS>MOLECULE
LIG
   68    72     1     0     0
SMALL
bcc


@<TRIPOS>ATOM
      1 O          -0.8280    0.2490   -1.0420 o         1 LIG     -0.574100
      2 N           6.4580    0.2660   -0.6550 n3        1 LIG     -0.729600
      3 N1          8.5150   -0.1620    1.3310 n3        1 LIG     -0.732600
      4 N2         -0.1070   -1.8330   -0.2330 n         1 LIG     -0.471100
      5 N3         -4.9450   -1.8880   -0.2700 nh        1 LIG     -0.713300
      6 N4         -4.3750    0.3580    0.1040 nb        1 LIG     -0.730000
      7 N5         -6.6080   -0.2580   -0.5600 nb        1 LIG     -0.745000
      8 N6         -2.8520    4.8340    0.2990 nb        1 LIG     -0.669000
      9 C           6.1550    0.3240    0.7800 c3        1 LIG      0.165800
     10 C1          7.8490    0.6630   -0.9020 c3        1 LIG      0.165800
     11 C2          7.1230   -0.5580    1.5770 c3        1 LIG      0.168800
     12 C3          8.8180   -0.2170   -0.1050 c3        1 LIG      0.168800
     13 C4          5.5350    1.1080   -1.4150 c3        1 LIG      0.209100
     14 C5          9.4360   -1.0050    2.0890 c3        1 LIG      0.157100
     15 C6          4.1040    0.6760   -1.2350 ca        1 LIG     -0.062300
     16 C7          3.7830   -0.6720   -1.3050 ca        1 LIG     -0.126000
     17 C8          3.1260    1.6330   -1.0020 ca        1 LIG     -0.126000
     18 C9          2.4570   -1.0710   -1.1390 ca        1 LIG     -0.095500
     19 C10         1.8000    1.2340   -0.8360 ca        1 LIG     -0.095500
     20 C11         1.4650   -0.1180   -0.9050 ca        1 LIG     -0.147600
     21 C12         0.0830   -0.5350   -0.7300 c         1 LIG      0.679700
     22 C13        -1.3240   -2.5130    0.0150 ca        1 LIG      0.076600
     23 C14        -3.7210   -2.5410   -0.0030 ca        1 LIG      0.157600
     24 C15        -2.5230   -1.8710   -0.2460 ca        1 LIG     -0.129000
     25 C16        -3.7030   -3.8430    0.4980 ca        1 LIG     -0.135300
     26 C17        -1.2880   -3.8040    0.5120 ca        1 LIG     -0.190000
     27 C18        -2.4870   -4.4740    0.7560 ca        1 LIG     -0.093000
     28 C19        -4.9720   -4.5840    0.7690 c3        1 LIG     -0.052800
     29 C20        -5.3270   -0.5340   -0.2410 ca        1 LIG      0.876900
     30 C21        -4.7750    1.6460    0.1230 cp        1 LIG      0.535800
     31 C22        -3.7560    2.5990    0.4910 cp        1 LIG     -0.270800
     32 C23        -6.0570    2.0550   -0.1840 ca        1 LIG     -0.411600
     33 C24        -6.9400    1.0500   -0.5210 ca        1 LIG      0.464200
     34 C25        -2.7240    2.2490    1.3560 ca        1 LIG     -0.050000
     35 C26        -3.7740    3.8930   -0.0050 ca        1 LIG      0.416200
     36 C27        -1.7570    3.1890    1.6920 ca        1 LIG     -0.256300
     37 C28        -1.8650    4.4560    1.1420 ca        1 LIG      0.403200
     38 H           6.2160    1.3570    1.1490 h1        1 LIG      0.039700
     39 H1          5.1470   -0.0370    1.0060 h1        1 LIG      0.039700
     40 H2          8.0830    0.5540   -1.9680 h1        1 LIG      0.039700
     41 H3          8.0090    1.7180   -0.6390 h1        1 LIG      0.039700
     42 H4          6.8910   -0.4480    2.6430 h1        1 LIG      0.036950
     43 H5          6.9630   -1.6120    1.3140 h1        1 LIG      0.036950
     44 H6          8.7670   -1.2500   -0.4760 h1        1 LIG      0.036950
     45 H7          9.8380    0.1430   -0.2830 h1        1 LIG      0.036950
     46 H8          5.6550    2.1620   -1.1290 h1        1 LIG      0.044200
     47 H9          5.7620    1.0410   -2.4870 h1        1 LIG      0.044200
     48 H10        10.4710   -0.6770    1.9370 h1        1 LIG      0.032700
     49 H11         9.3640   -2.0610    1.8020 h1        1 LIG      0.032700
     50 H12         9.2360   -0.9250    3.1630 h1        1 LIG      0.032700
     51 H13         4.5360   -1.4280   -1.5090 ha        1 LIG      0.145500
     52 H14         3.3740    2.6890   -0.9460 ha        1 LIG      0.145500
     53 H15         2.2390   -2.1300   -1.2430 ha        1 LIG      0.145500
     54 H16         1.0440    1.9920   -0.6480 ha        1 LIG      0.145500
     55 H17         0.7150   -2.3710    0.0290 hn        1 LIG      0.318500
     56 H18        -2.5690   -0.8970   -0.6990 ha        1 LIG      0.190000
     57 H19        -0.3460   -4.3050    0.7160 ha        1 LIG      0.130000
     58 H20        -2.4540   -5.4880    1.1450 ha        1 LIG      0.133000
     59 H21        -5.7330   -2.5040   -0.4360 hn        1 LIG      0.444800
     60 H22        -5.6190   -4.0110    1.4420 hc        1 LIG      0.044367
     61 H23        -4.7840   -5.5490    1.2520 hc        1 LIG      0.044367
     62 H24        -5.5050   -4.7850   -0.1660 hc        1 LIG      0.044367
     63 H25        -6.3940    3.0830   -0.1520 ha        1 LIG      0.157000
     64 H26        -7.9710    1.2730   -0.7720 h4        1 LIG      0.028100
     65 H27        -2.6520    1.2550    1.7890 ha        1 LIG      0.158000
     66 H28        -4.5280    4.2450   -0.7030 h4        1 LIG      0.027100
     67 H29        -0.9440    2.9390    2.3650 ha        1 LIG      0.145000
     68 H30        -1.1360    5.2260    1.3730 h4        1 LIG      0.023100
@<TRIPOS>BOND
     1    1   21 2
     2    2    9 1
     3    2   10 1
     4    2   13 1
     5    3   11 1
     6    3   12 1
     7    3   14 1
     8    4   21 1
     9    4   22 1
    10    4   55 1
    11    5   23 1
    12    5   29 1
    13    5   59 1
    14    6   29 ar
    15    6   30 ar
    16    7   29 ar
    17    7   33 ar
    18    8   35 ar
    19    8   37 ar
    20    9   11 1
    21    9   38 1
    22    9   39 1
    23   10   12 1
    24   10   40 1
    25   10   41 1
    26   11   42 1
    27   11   43 1
    28   12   44 1
    29   12   45 1
    30   13   15 1
    31   13   46 1
    32   13   47 1
    33   14   48 1
    34   14   49 1
    35   14   50 1
    36   15   16 ar
    37   15   17 ar
    38   16   18 ar
    39   16   51 1
    40   17   19 ar
    41   17   52 1
    42   18   20 ar
    43   18   53 1
    44   19   20 ar
    45   19   54 1
    46   20   21 1
    47   22   24 ar
    48   22   26 ar
    49   23   24 ar
    50   23   25 ar
    51   24   56 1
    52   25   27 ar
    53   25   28 1
    54   26   27 ar
    55   26   57 1
    56   27   58 1
    57   28   60 1
    58   28   61 1
    59   28   62 1
    60   30   31 1
    61   30   32 ar
    62   31   34 ar
    63   31   35 ar
    64   32   33 ar
    65   32   63 1
    66   33   64 1
    67   34   36 ar
    68   34   65 1
    69   35   66 1
    70   36   37 ar
    71   36   67 1
    72   37   68 1
@<TRIPOS>SUBSTRUCTURE
     1 LIG         1 TEMP              0 ****  ****    0 ROOT
